
 OpenBabel10041822073D

  8  8  0  0  0  0  0  0  0  0999 V2000
   -1.0390   -3.7827    0.5720 C   0  0  0  0  0  0  0  0  0  0  0  0
    0.1474   -4.4274    0.2776 O   0  0  0  0  0  0  0  0  0  0  0  0
    0.1008   -4.9467   -0.9493 C   0  0  0  0  0  0  0  0  0  0  0  0
   -1.8739   -3.9625   -0.7120 C   0  0  0  0  0  0  0  0  0  0  0  0
   -0.9842   -4.7142   -1.5549 N   0  0  0  0  0  0  0  0  0  0  0  0
    0.9031   -5.5312   -1.3853 H   0  0  0  0  0  0  0  0  0  0  0  0
   -2.8289   -3.6281   -0.9148 H   0  0  0  0  0  0  0  0  0  0  0  0
   -1.3033   -3.2969    1.4433 H   0  0  0  0  0  0  0  0  0  0  0  0
  1  8  1  0  0  0  0
  2  1  1  0  0  0  0
  3  2  1  0  0  0  0
  4  1  2  0  0  0  0
  5  3  2  0  0  0  0
  5  4  1  0  0  0  0
  6  3  1  0  0  0  0
  7  4  1  0  0  0  0
M  END
